
OS:Version,
  {da40192b-d45e-44ba-bd82-99d3be1ab492}, !- Handle
  3.8.0;                                  !- Version Identifier

OS:Schedule:Constant,
  {b857d07e-549f-44a2-acf8-9a2e8294c985}, !- Handle
  Always On Discrete,                     !- Name
  {c7847156-4614-4e0e-a492-e7536b4da5e7}, !- Schedule Type Limits Name
  1;                                      !- Value

OS:ScheduleTypeLimits,
  {c7847156-4614-4e0e-a492-e7536b4da5e7}, !- Handle
  OnOff,                                  !- Name
  0,                                      !- Lower Limit Value
  1,                                      !- Upper Limit Value
  Discrete,                               !- Numeric Type
  Availability;                           !- Unit Type

OS:Fan:OnOff,
  {16701dfe-4e3d-433e-af0b-82a0f4ce850d}, !- Handle
  Office_Shoe_Box_4afb8432 Furnace Supply Fan, !- Name
  {b857d07e-549f-44a2-acf8-9a2e8294c985}, !- Availability Schedule Name
  0.6,                                    !- Fan Total Efficiency
  124.419892252373,                       !- Pressure Rise {Pa}
  autosize,                               !- Maximum Flow Rate {m3/s}
  1,                                      !- Motor Efficiency
  1,                                      !- Motor In Airstream Fraction
  ,                                       !- Air Inlet Node Name
  ,                                       !- Air Outlet Node Name
  ,                                       !- Fan Power Ratio Function of Speed Ratio Curve Name
  ,                                       !- Fan Efficiency Ratio Function of Speed Ratio Curve Name
  Residential HVAC Fans;                  !- End-Use Subcategory

OS:Coil:Heating:Electric,
  {00a55847-ccdd-4b20-9935-29b441ebcad7}, !- Handle
  Office_Shoe_Box_4afb8432 PTAC No Heat,  !- Name
  {b857d07e-549f-44a2-acf8-9a2e8294c985}, !- Availability Schedule Name
  1,                                      !- Efficiency
  autosize,                               !- Nominal Capacity {W}
  ,                                       !- Air Inlet Node Name
  ;                                       !- Air Outlet Node Name

OS:AirLoopHVAC:UnitarySystem,
  {c5485423-a431-4d05-b062-87e53dc1af01}, !- Handle
  Office_Shoe_Box_4afb8432 Furnace Unitary System, !- Name
  Load,                                   !- Control Type
  ,                                       !- Controlling Zone or Thermostat Location
  None,                                   !- Dehumidification Control Type
  {b857d07e-549f-44a2-acf8-9a2e8294c985}, !- Availability Schedule Name
  ,                                       !- Air Inlet Node Name
  ,                                       !- Air Outlet Node Name
  {16701dfe-4e3d-433e-af0b-82a0f4ce850d}, !- Supply Fan Name
  BlowThrough,                            !- Fan Placement
  ,                                       !- Supply Air Fan Operating Mode Schedule Name
  {00a55847-ccdd-4b20-9935-29b441ebcad7}, !- Heating Coil Name
  1,                                      !- DX Heating Coil Sizing Ratio
  ,                                       !- Cooling Coil Name
  No,                                     !- Use DOAS DX Cooling Coil
  2,                                      !- DOAS DX Cooling Coil Leaving Minimum Air Temperature {C}
  SensibleOnlyLoadControl,                !- Latent Load Control
  ,                                       !- Supplemental Heating Coil Name
  SupplyAirFlowRate,                      !- Supply Air Flow Rate Method During Cooling Operation
  0,                                      !- Supply Air Flow Rate During Cooling Operation {m3/s}
  ,                                       !- Supply Air Flow Rate Per Floor Area During Cooling Operation {m3/s-m2}
  ,                                       !- Fraction of Autosized Design Cooling Supply Air Flow Rate
  ,                                       !- Design Supply Air Flow Rate Per Unit of Capacity During Cooling Operation {m3/s-W}
  SupplyAirFlowRate,                      !- Supply Air Flow Rate Method During Heating Operation
  Autosize,                               !- Supply Air Flow Rate During Heating Operation {m3/s}
  ,                                       !- Supply Air Flow Rate Per Floor Area during Heating Operation {m3/s-m2}
  ,                                       !- Fraction of Autosized Design Heating Supply Air Flow Rate
  ,                                       !- Design Supply Air Flow Rate Per Unit of Capacity During Heating Operation {m3/s-W}
  None,                                   !- Supply Air Flow Rate Method When No Cooling or Heating is Required
  ,                                       !- Supply Air Flow Rate When No Cooling or Heating is Required {m3/s}
  ,                                       !- Supply Air Flow Rate Per Floor Area When No Cooling or Heating is Required {m3/s-m2}
  ,                                       !- Fraction of Autosized Design Cooling Supply Air Flow Rate When No Cooling or Heating is Required
  ,                                       !- Fraction of Autosized Design Heating Supply Air Flow Rate When No Cooling or Heating is Required
  ,                                       !- Design Supply Air Flow Rate Per Unit of Capacity During Cooling Operation When No Cooling or Heating is Required {m3/s-W}
  ,                                       !- Design Supply Air Flow Rate Per Unit of Capacity During Heating Operation When No Cooling or Heating is Required {m3/s-W}
  Yes,                                    !- No Load Supply Air Flow Rate Control Set To Low Speed
  50,                                     !- Maximum Supply Air Temperature {C}
  21,                                     !- Maximum Outdoor Dry-Bulb Temperature for Supplemental Heater Operation {C}
  ,                                       !- Outdoor Dry-Bulb Temperature Sensor Node Name
  0,                                      !- Ancilliary On-Cycle Electric Power {W}
  0;                                      !- Ancilliary Off-Cycle Electric Power {W}
 