
OS:Version,
  {da40192b-d45e-44ba-bd82-99d3be1ab492}, !- Handle
  3.8.0;                                  !- Version Identifier

OS:People:Definition,
  {48632df4-7fb1-46cc-8459-3006bf4c3efa}, !- Handle
  2019::LargeOffice::OpenOffice_People,   !- Name
  People/Area,                            !- Number of People Calculation Method
  ,                                       !- Number of People {people}
  0.0565105540187077,                     !- People per Space Floor Area {person/m2}
  ,                                       !- Space Floor Area per Person {m2/person}
  0.3,                                    !- Fraction Radiant
  Autocalculate,                          !- Sensible Heat Fraction
  ,                                       !- Carbon Dioxide Generation Rate {m3/s-W}
  ,                                       !- Enable ASHRAE 55 Comfort Warnings
  EnclosureAveraged;                      !- Mean Radiant Temperature Calculation Type

OS:People:Definition,
  {48632df4-7fb1-46cc-8459-3006bf4c3efb}, !- Handle
  OpenOffice_People_SurfaceWeighted,      !- Name
  People/Area,                            !- Number of People Calculation Method
  ,                                       !- Number of People {people}
  0.0565105540187077,                     !- People per Space Floor Area {person/m2}
  ,                                       !- Space Floor Area per Person {m2/person}
  0.3,                                    !- Fraction Radiant
  Autocalculate,                          !- Sensible Heat Fraction
  ,                                       !- Carbon Dioxide Generation Rate {m3/s-W}
  ,                                       !- Enable ASHRAE 55 Comfort Warnings
  SurfaceWeighted;                        !- Mean Radiant Temperature Calculation Type

OS:People:Definition,
  {48632df4-7fb1-46cc-8459-3006bf4c3efc}, !- Handle
  OpenOffice_People_Short,                !- Name
  People/Area,                            !- Number of People Calculation Method
  ,                                       !- Number of People {people}
  0.0565105540187077,                     !- People per Space Floor Area {person/m2}
  ,                                       !- Space Floor Area per Person {m2/person}
  0.3,                                    !- Fraction Radiant
  Autocalculate;                          !- Sensible Heat Fraction
